Circuit: * C:\Users\dome-\Desktop\UKW-Sender\Draft1.asc

Direct Newton iteration for .op point succeeded.

Date: Sat Nov 06 21:38:42 2021
Total elapsed time: 0.042 seconds.

tnom = 27
temp = 27
method = modified trap
totiter = 2085
traniter = 2082
tranpoints = 1042
accept = 1042
rejected = 0
matrix size = 6
fillins = 0
solver = Alternate
Matrix Compiler1: 458 bytes object code size  0.1/0.1/[0.1]
Matrix Compiler2: 526 bytes object code size  0.1/0.1/[0.1]

